<configuration>
    <input>
        <net-file value="s.net.xml"/>
        <route-files value="s.rou.xml"/>
    </input>
</configuration>