<?xml version="1.0" encoding="UTF-8"?>

<!-- generated on 2023-05-01 11:30:49.518959 by osmWebWizard.py UNKNOWN
<configuration>
    <allow-fringe.min-length value="1000.0"/>
    <begin value="0"/>
    <end value="3600"/>
    <fringe-factor value="5"/>
    <fringe-start-attributes value="departSpeed=&quot;max&quot;"/>
    <insertion-density value="12.0"/>
    <lanes value="True"/>
    <min-distance.fringe value="10.0"/>
    <min-distance value="300.0"/>
    <net-file value="/opt/homebrew/Cellar/sumo/1.16.0/share/sumo/tools/2023-05-01-11-30-41/osm.net.xml.gz"/>
    <remove-loops value="True"/>
    <route-file value="/opt/homebrew/Cellar/sumo/1.16.0/share/sumo/tools/2023-05-01-11-30-41/osm.passenger.rou.xml"/>
    <trip-attributes value="departLane=&quot;best&quot;"/>
    <output-trip-file value="/opt/homebrew/Cellar/sumo/1.16.0/share/sumo/tools/2023-05-01-11-30-41/osm.passenger.trips.xml"/>
    <prefix value="veh"/>
    <validate value="True"/>
    <vehicle-class value="passenger"/>
</configuration>
-->

<!-- generated on 2023-05-01 11:30:49 by Eclipse SUMO duarouter Version 1.16.0
<configuration xmlns:xsi="http://www.w3.org/2001/XMLSchema-instance" xsi:noNamespaceSchemaLocation="http://sumo.dlr.de/xsd/duarouterConfiguration.xsd">

    <input>
        <net-file value="/opt/homebrew/Cellar/sumo/1.16.0/share/sumo/tools/2023-05-01-11-30-41/osm.net.xml.gz"/>
        <route-files value="/opt/homebrew/Cellar/sumo/1.16.0/share/sumo/tools/2023-05-01-11-30-41/osm.passenger.trips.xml"/>
    </input>

    <output>
        <output-file value="/opt/homebrew/Cellar/sumo/1.16.0/share/sumo/tools/2023-05-01-11-30-41/osm.passenger.trips.xml.tmp"/>
        <alternatives-output value="NUL"/>
        <write-trips value="true"/>
    </output>

    <processing>
        <remove-loops value="true"/>
    </processing>

    <time>
        <begin value="0"/>
        <end value="3600"/>
    </time>

    <report>
        <no-warnings value="true"/>
        <ignore-errors value="true"/>
        <no-step-log value="true"/>
    </report>

</configuration>
-->

<routes xmlns:xsi="http://www.w3.org/2001/XMLSchema-instance" xsi:noNamespaceSchemaLocation="http://sumo.dlr.de/xsd/routes_file.xsd">
    <vType id="veh_passenger" vClass="passenger"/>
    <trip id="veh0" type="veh_passenger" depart="0.00" departLane="best" from="44348024#0" to="120022740#9"/>
    <trip id="veh1" type="veh_passenger" depart="1.90" departLane="best" from="1070607477" to="-73530943#6"/>
    <trip id="veh2" type="veh_passenger" depart="3.80" departLane="best" from="4767278#0" to="46129033"/>
    <trip id="veh3" type="veh_passenger" depart="5.70" departLane="best" from="767369895#1" to="-4361219#1"/>
    <trip id="veh4" type="veh_passenger" depart="7.60" departLane="best" departSpeed="max" from="139332621#0" to="13127125#0"/>
    <trip id="veh5" type="veh_passenger" depart="9.50" departLane="best" from="654399244#1" to="-19579792#1"/>
    <trip id="veh6" type="veh_passenger" depart="11.40" departLane="best" from="13123046#2" to="-5046169#1"/>
    <trip id="veh7" type="veh_passenger" depart="13.30" departLane="best" from="4577073#4" to="204241143#2"/>
    <trip id="veh8" type="veh_passenger" depart="15.20" departLane="best" from="-711979119" to="-28338493#7"/>
    <trip id="veh9" type="veh_passenger" depart="17.10" departLane="best" from="527496226#4" to="-10585474"/>
    <trip id="veh10" type="veh_passenger" depart="19.01" departLane="best" from="527496221#4" to="4754399#11"/>
    <trip id="veh11" type="veh_passenger" depart="20.91" departLane="best" from="1117069528" to="-4767282"/>
    <trip id="veh12" type="veh_passenger" depart="22.81" departLane="best" from="792597601" to="1115955286#0"/>
    <trip id="veh13" type="veh_passenger" depart="24.71" departLane="best" from="-4394494#3" to="-4577073#3"/>
    <trip id="veh14" type="veh_passenger" depart="26.61" departLane="best" from="573304463#3" to="36379097#0"/>
    <trip id="veh15" type="veh_passenger" depart="28.51" departLane="best" from="527496221#4" to="4754527#5"/>
    <trip id="veh16" type="veh_passenger" depart="30.41" departLane="best" departSpeed="max" from="203087928" to="794258390#2"/>
    <trip id="veh17" type="veh_passenger" depart="32.31" departLane="best" from="-179269287#0" to="208198637#0"/>
    <trip id="veh18" type="veh_passenger" depart="34.21" departLane="best" from="569765777" to="405414870#4"/>
    <trip id="veh19" type="veh_passenger" depart="36.11" departLane="best" departSpeed="max" from="574536416#0" to="45897403#4"/>
    <trip id="veh20" type="veh_passenger" depart="38.01" departLane="best" from="-4754404#1" to="178953740#4"/>
    <trip id="veh22" type="veh_passenger" depart="41.81" departLane="best" from="-28338493#6" to="-794250467"/>
    <trip id="veh23" type="veh_passenger" depart="43.71" departLane="best" from="-4577079#10" to="389642098#0"/>
    <trip id="veh24" type="veh_passenger" depart="45.61" departLane="best" from="44348023#0" to="1117069543"/>
    <trip id="veh25" type="veh_passenger" depart="47.51" departLane="best" from="1148448179" to="-630680457#2"/>
    <trip id="veh26" type="veh_passenger" depart="49.41" departLane="best" from="-4577073#0" to="389642103"/>
    <trip id="veh27" type="veh_passenger" depart="51.31" departLane="best" from="-4909682#1" to="4754527#3"/>
    <trip id="veh28" type="veh_passenger" depart="53.22" departLane="best" from="-4868215#6" to="1148448179"/>
    <trip id="veh29" type="veh_passenger" depart="55.12" departLane="best" from="-866587587#6" to="44348024#1"/>
    <trip id="veh30" type="veh_passenger" depart="57.02" departLane="best" departSpeed="max" from="209337363#0" to="467592829-AddedOffRampEdge"/>
    <trip id="veh31" type="veh_passenger" depart="58.92" departLane="best" from="573304461#2" to="491516483#4"/>
    <trip id="veh33" type="veh_passenger" depart="62.72" departLane="best" from="1115955283#1" to="1070607473#2"/>
    <trip id="veh34" type="veh_passenger" depart="64.62" departLane="best" from="-630680457#3" to="791793872#2"/>
    <trip id="veh35" type="veh_passenger" depart="66.52" departLane="best" from="-654399245" to="1089996372#0"/>
    <trip id="veh36" type="veh_passenger" depart="68.42" departLane="best" from="-4577078#3" to="-13123046#2"/>
    <trip id="veh37" type="veh_passenger" depart="70.32" departLane="best" from="-10670468#1" to="10539028#0"/>
    <trip id="veh38" type="veh_passenger" depart="72.22" departLane="best" departSpeed="max" from="209337363#0" to="10585502#2"/>
    <trip id="veh39" type="veh_passenger" depart="74.12" departLane="best" from="24801549#8" to="780202325#1"/>
    <trip id="veh40" type="veh_passenger" depart="76.02" departLane="best" from="13127123#5" to="711979119"/>
    <trip id="veh42" type="veh_passenger" depart="79.82" departLane="best" from="-4361221#5" to="-178953751"/>
    <trip id="veh43" type="veh_passenger" depart="81.72" departLane="best" from="-4577079#9" to="44347984#0"/>
    <trip id="veh44" type="veh_passenger" depart="83.62" departLane="best" from="5094891#4" to="-139332150#0"/>
    <trip id="veh45" type="veh_passenger" depart="85.52" departLane="best" from="-204241141#2" to="1148448180#0"/>
    <trip id="veh46" type="veh_passenger" depart="87.43" departLane="best" from="794258390#1" to="630680457#0"/>
    <trip id="veh47" type="veh_passenger" depart="89.33" departLane="best" from="-1089988280#2" to="4754479#0"/>
    <trip id="veh48" type="veh_passenger" depart="91.23" departLane="best" from="46134996#0" to="203086244#8"/>
    <trip id="veh49" type="veh_passenger" depart="93.13" departLane="best" from="1068971705#1" to="44348034#1"/>
    <trip id="veh50" type="veh_passenger" depart="95.03" departLane="best" from="45897672#0" to="139332617#2"/>
    <trip id="veh52" type="veh_passenger" depart="98.83" departLane="best" from="654399244#1" to="10670468#0"/>
    <trip id="veh53" type="veh_passenger" depart="100.73" departLane="best" from="198691693" to="4909701#1"/>
    <trip id="veh54" type="veh_passenger" depart="102.63" departLane="best" from="754116434#1" to="654399245"/>
    <trip id="veh55" type="veh_passenger" depart="104.53" departLane="best" from="1070607483#2" to="44348024#1"/>
    <trip id="veh56" type="veh_passenger" depart="106.43" departLane="best" from="310292423" to="47654466#1"/>
    <trip id="veh57" type="veh_passenger" depart="108.33" departLane="best" from="-4909700#2" to="204241141#2"/>
    <trip id="veh58" type="veh_passenger" depart="110.23" departLane="best" from="49229452#2" to="203086244#3"/>
    <trip id="veh59" type="veh_passenger" depart="112.13" departLane="best" from="10539447#1" to="1115955283#0"/>
    <trip id="veh60" type="veh_passenger" depart="114.03" departLane="best" from="-1164319799#0" to="786235567#1"/>
    <trip id="veh61" type="veh_passenger" depart="115.93" departLane="best" from="68310781#0" to="569766862#0"/>
    <trip id="veh63" type="veh_passenger" depart="119.73" departLane="best" from="655270066#2" to="791825000#0"/>
    <trip id="veh64" type="veh_passenger" depart="121.64" departLane="best" from="36903821#2" to="179269287#1"/>
    <trip id="veh65" type="veh_passenger" depart="123.54" departLane="best" from="-22587807#2" to="4909686#2"/>
    <trip id="veh66" type="veh_passenger" depart="125.44" departLane="best" from="4909703#3" to="4754434#0"/>
    <trip id="veh67" type="veh_passenger" depart="127.34" departLane="best" from="178953756" to="204241143#6"/>
    <trip id="veh68" type="veh_passenger" depart="129.24" departLane="best" from="-10670468#2" to="68310781#0"/>
    <trip id="veh69" type="veh_passenger" depart="131.14" departLane="best" departSpeed="max" from="139332621#0" to="-630680457#7"/>
    <trip id="veh70" type="veh_passenger" depart="133.04" departLane="best" from="-204241141#2" to="4754527#5"/>
    <trip id="veh71" type="veh_passenger" depart="134.94" departLane="best" from="-5094887#1" to="-1089988280#3"/>
    <trip id="veh72" type="veh_passenger" depart="136.84" departLane="best" from="165828352#1" to="198711890#1"/>
    <trip id="veh73" type="veh_passenger" depart="138.74" departLane="best" from="46135048#0" to="-73530943#9"/>
    <trip id="veh74" type="veh_passenger" depart="140.64" departLane="best" from="1117069527" to="28338493#4"/>
    <trip id="veh79" type="veh_passenger" depart="150.14" departLane="best" from="-866587587#13" to="45897403#8"/>
    <trip id="veh80" type="veh_passenger" depart="152.04" departLane="best" from="-654399242#1" to="-4754442"/>
    <trip id="veh81" type="veh_passenger" depart="153.94" departLane="best" from="786245176" to="24385636#0"/>
    <trip id="veh82" type="veh_passenger" depart="155.84" departLane="best" from="178953740#2" to="5045577#2"/>
    <trip id="veh83" type="veh_passenger" depart="157.75" departLane="best" from="527496224#4" to="-49229438"/>
    <trip id="veh84" type="veh_passenger" depart="159.65" departLane="best" from="-4577073#3" to="139332617#2"/>
    <trip id="veh85" type="veh_passenger" depart="161.55" departLane="best" departSpeed="max" from="139332621#0" to="172916432#0"/>
    <trip id="veh86" type="veh_passenger" depart="163.45" departLane="best" from="-4754527#6" to="46129019#3"/>
    <trip id="veh87" type="veh_passenger" depart="165.35" departLane="best" from="827546847" to="-4577078#0"/>
    <trip id="veh89" type="veh_passenger" depart="169.15" departLane="best" departSpeed="max" from="574536416#0" to="10539044#1"/>
    <trip id="veh90" type="veh_passenger" depart="171.05" departLane="best" departSpeed="max" from="139332621#0" to="1070607479#0"/>
    <trip id="veh91" type="veh_passenger" depart="172.95" departLane="best" from="10539044#1" to="786234664#0"/>
    <trip id="veh92" type="veh_passenger" depart="174.85" departLane="best" from="165828382#0" to="630680457#1"/>
    <trip id="veh93" type="veh_passenger" depart="176.75" departLane="best" from="-204241148#0" to="-179269284"/>
    <trip id="veh94" type="veh_passenger" depart="178.65" departLane="best" from="573304463#3" to="-4868235"/>
    <trip id="veh95" type="veh_passenger" depart="180.55" departLane="best" from="179269293#2" to="654399242#10"/>
    <trip id="veh96" type="veh_passenger" depart="182.45" departLane="best" from="13127125#2" to="-181733283"/>
    <trip id="veh97" type="veh_passenger" depart="184.35" departLane="best" from="1164317991" to="866587587#1"/>
    <trip id="veh98" type="veh_passenger" depart="186.25" departLane="best" from="-10670468#2" to="5045577#1"/>
    <trip id="veh99" type="veh_passenger" depart="188.15" departLane="best" from="16986734#0" to="139332152#2"/>
    <trip id="veh101" type="veh_passenger" depart="191.96" departLane="best" departSpeed="max" from="209337363#0" to="4754448#3"/>
    <trip id="veh102" type="veh_passenger" depart="193.86" departLane="best" from="4767278#1" to="1070607486"/>
    <trip id="veh103" type="veh_passenger" depart="195.76" departLane="best" from="794258389#0" to="250248456#4"/>
    <trip id="veh104" type="veh_passenger" depart="197.66" departLane="best" from="204241141#9" to="4868215#9"/>
    <trip id="veh105" type="veh_passenger" depart="199.56" departLane="best" from="-181733096" to="264962615#2"/>
    <trip id="veh106" type="veh_passenger" depart="201.46" departLane="best" from="198691699#0" to="573304466"/>
    <trip id="veh107" type="veh_passenger" depart="203.36" departLane="best" from="-47875169" to="792597607#0"/>
    <trip id="veh108" type="veh_passenger" depart="205.26" departLane="best" from="-28338493#6" to="-4909720#1"/>
    <trip id="veh109" type="veh_passenger" depart="207.16" departLane="best" from="-28338493#4" to="46129020"/>
    <trip id="veh110" type="veh_passenger" depart="209.06" departLane="best" from="493547207#1" to="46134996#1"/>
    <trip id="veh111" type="veh_passenger" depart="210.96" departLane="best" from="754116436#1" to="1038136215"/>
    <trip id="veh112" type="veh_passenger" depart="212.86" departLane="best" from="-28338493#2" to="405414870#4"/>
    <trip id="veh114" type="veh_passenger" depart="216.66" departLane="best" from="203086244#1" to="791793872#0"/>
    <trip id="veh115" type="veh_passenger" depart="218.56" departLane="best" from="-548116379#0" to="4754445"/>
    <trip id="veh116" type="veh_passenger" depart="220.46" departLane="best" from="-866587587#2" to="-13123046#2"/>
    <trip id="veh117" type="veh_passenger" depart="222.36" departLane="best" from="45897672#1" to="1070607486"/>
    <trip id="veh118" type="veh_passenger" depart="224.26" departLane="best" from="1115955283#1" to="4868236#1"/>
    <trip id="veh119" type="veh_passenger" depart="226.17" departLane="best" from="-250248456#4" to="167571364#0"/>
    <trip id="veh120" type="veh_passenger" depart="228.07" departLane="best" from="-264962614" to="654399242#1"/>
    <trip id="veh121" type="veh_passenger" depart="229.97" departLane="best" from="-10670468#2" to="786245178"/>
    <trip id="veh122" type="veh_passenger" depart="231.87" departLane="best" from="73530943#11" to="754116434#0"/>
    <trip id="veh123" type="veh_passenger" depart="233.77" departLane="best" from="1148448178" to="4868203#1"/>
    <trip id="veh124" type="veh_passenger" depart="235.67" departLane="best" from="569766862#0-AddedOffRampEdge" to="4754399#6"/>
    <trip id="veh125" type="veh_passenger" depart="237.57" departLane="best" from="36903821#0" to="866587587#15"/>
    <trip id="veh126" type="veh_passenger" depart="239.47" departLane="best" from="5326787#0" to="1070607486"/>
    <trip id="veh127" type="veh_passenger" depart="241.37" departLane="best" from="-4577079#3" to="791793872#2"/>
    <trip id="veh128" type="veh_passenger" depart="243.27" departLane="best" from="-4754444#2" to="-46129019#5"/>
    <trip id="veh129" type="veh_passenger" depart="245.17" departLane="best" from="-4577079#24" to="208198637#3"/>
    <trip id="veh130" type="veh_passenger" depart="247.07" departLane="best" from="1070607475" to="-36903821#0"/>
    <trip id="veh131" type="veh_passenger" depart="248.97" departLane="best" from="44347939" to="10670468#2"/>
    <trip id="veh132" type="veh_passenger" depart="250.87" departLane="best" from="179384834#3" to="784347315"/>
    <trip id="veh133" type="veh_passenger" depart="252.77" departLane="best" from="573304463#0" to="4394494#3"/>
    <trip id="veh134" type="veh_passenger" depart="254.67" departLane="best" departSpeed="max" from="139332621#0" to="389642098#0"/>
    <trip id="veh135" type="veh_passenger" depart="256.57" departLane="best" from="-10585181#6" to="4909717#8"/>
    <trip id="veh136" type="veh_passenger" depart="258.47" departLane="best" from="44348023#1" to="10585502#0"/>
    <trip id="veh137" type="veh_passenger" depart="260.37" departLane="best" from="-4868203#1" to="208198637#0"/>
    <trip id="veh138" type="veh_passenger" depart="262.28" departLane="best" departSpeed="max" from="139332621#0" to="-1089988280#0"/>
    <trip id="veh139" type="veh_passenger" depart="264.18" departLane="best" from="-264962615#3" to="754116436#0"/>
    <trip id="veh140" type="veh_passenger" depart="266.08" departLane="best" from="780202325#1" to="204241143#2"/>
    <trip id="veh141" type="veh_passenger" depart="267.98" departLane="best" from="569766862#0-AddedOffRampEdge" to="264962614"/>
    <trip id="veh142" type="veh_passenger" depart="269.88" departLane="best" from="-4754527#2" to="4754409"/>
    <trip id="veh144" type="veh_passenger" depart="273.68" departLane="best" from="5094896#1" to="630680457#0"/>
    <trip id="veh145" type="veh_passenger" depart="275.58" departLane="best" from="1117069528" to="-630680457#4"/>
    <trip id="veh146" type="veh_passenger" depart="277.48" departLane="best" from="10539044#1" to="4577079#15"/>
    <trip id="veh147" type="veh_passenger" depart="279.38" departLane="best" from="493547206#0" to="754116436#1"/>
    <trip id="veh148" type="veh_passenger" depart="281.28" departLane="best" from="139327105#1" to="-4361220#1"/>
    <trip id="veh149" type="veh_passenger" depart="283.18" departLane="best" from="-4767278#0" to="786245176"/>
    <trip id="veh150" type="veh_passenger" depart="285.08" departLane="best" from="582038025#1" to="794269737"/>
    <trip id="veh151" type="veh_passenger" depart="286.98" departLane="best" from="527496226#4" to="754116435#0"/>
    <trip id="veh152" type="veh_passenger" depart="288.88" departLane="best" from="-120022740#8" to="47654466#1"/>
    <trip id="veh153" type="veh_passenger" depart="290.78" departLane="best" from="1117069523" to="786245176"/>
    <trip id="veh154" type="veh_passenger" depart="292.68" departLane="best" from="52631615#9" to="630680457#7"/>
    <trip id="veh155" type="veh_passenger" depart="294.58" departLane="best" from="527496226#4" to="1070607473#1"/>
    <trip id="veh156" type="veh_passenger" depart="296.49" departLane="best" from="5094886#3" to="4577079#7"/>
    <trip id="veh157" type="veh_passenger" depart="298.39" departLane="best" from="-654399242#10" to="582038025#1"/>
    <trip id="veh158" type="veh_passenger" depart="300.29" departLane="best" from="-73530943#2" to="-5326787#3"/>
    <trip id="veh159" type="veh_passenger" depart="302.19" departLane="best" from="172280085#3" to="1070607486"/>
    <trip id="veh161" type="veh_passenger" depart="305.99" departLane="best" from="-120022740#6" to="-49229452#1"/>
    <trip id="veh162" type="veh_passenger" depart="307.89" departLane="best" from="1115955286#1" to="-63906910#0"/>
    <trip id="veh163" type="veh_passenger" depart="309.79" departLane="best" from="794258388" to="1070607479#0"/>
    <trip id="veh164" type="veh_passenger" depart="311.69" departLane="best" from="44348034#1" to="13123638#5"/>
    <trip id="veh165" type="veh_passenger" depart="313.59" departLane="best" from="786245177#0" to="-46129019#5"/>
    <trip id="veh166" type="veh_passenger" depart="315.49" departLane="best" from="794258390#0" to="4909701#1"/>
    <trip id="veh167" type="veh_passenger" depart="317.39" departLane="best" from="792597607#1" to="-1068971705#0"/>
    <trip id="veh168" type="veh_passenger" depart="319.29" departLane="best" from="-4577079#6" to="139332617#2"/>
    <trip id="veh169" type="veh_passenger" depart="321.19" departLane="best" from="-4754527#5" to="1089996371#1"/>
    <trip id="veh170" type="veh_passenger" depart="323.09" departLane="best" from="289004372#1" to="198691699#2"/>
    <trip id="veh171" type="veh_passenger" depart="324.99" departLane="best" from="120022740#9" to="24801549#4"/>
    <trip id="veh172" type="veh_passenger" depart="326.89" departLane="best" from="1056152607" to="4754434#0"/>
    <trip id="veh173" type="veh_passenger" depart="328.79" departLane="best" from="-10585181#1" to="786235567#0"/>
    <trip id="veh174" type="veh_passenger" depart="330.70" departLane="best" from="780204160" to="4754448#5"/>
    <trip id="veh175" type="veh_passenger" depart="332.60" departLane="best" from="-4868203#3" to="-45897672#1"/>
    <trip id="veh176" type="veh_passenger" depart="334.50" departLane="best" from="1148448174#1" to="22893950#1"/>
    <trip id="veh177" type="veh_passenger" depart="336.40" departLane="best" from="-4577079#6" to="1115955285#0"/>
    <trip id="veh178" type="veh_passenger" depart="338.30" departLane="best" from="1115955283#0" to="573304465#0"/>
    <trip id="veh179" type="veh_passenger" depart="340.20" departLane="best" from="4754479#1" to="1070607486"/>
    <trip id="veh180" type="veh_passenger" depart="342.10" departLane="best" from="1089996375" to="13127123#4"/>
    <trip id="veh181" type="veh_passenger" depart="344.00" departLane="best" from="139327098#0" to="1070607486"/>
    <trip id="veh182" type="veh_passenger" depart="345.90" departLane="best" from="-4754404#1" to="139327109#2"/>
    <trip id="veh183" type="veh_passenger" depart="347.80" departLane="best" from="786245178" to="46129039"/>
    <trip id="veh187" type="veh_passenger" depart="355.40" departLane="best" from="139332621#1" to="25757262#2"/>
    <trip id="veh188" type="veh_passenger" depart="357.30" departLane="best" from="-4577078#0" to="17133664#3"/>
    <trip id="veh189" type="veh_passenger" depart="359.20" departLane="best" from="165828381" to="654399242#10"/>
    <trip id="veh190" type="veh_passenger" depart="361.10" departLane="best" from="178953740#3" to="780204160"/>
    <trip id="veh191" type="veh_passenger" depart="363.00" departLane="best" from="5094896#1" to="-4868238#4"/>
    <trip id="veh192" type="veh_passenger" depart="364.91" departLane="best" from="36903821#0" to="198711889"/>
    <trip id="veh193" type="veh_passenger" depart="366.81" departLane="best" from="44341853" to="1115955285#3"/>
    <trip id="veh194" type="veh_passenger" depart="368.71" departLane="best" from="5326788" to="-4868235"/>
    <trip id="veh195" type="veh_passenger" depart="370.61" departLane="best" from="-46129019#0" to="-73530943#9"/>
    <trip id="veh196" type="veh_passenger" depart="372.51" departLane="best" from="5046168#0" to="120022740#8"/>
    <trip id="veh197" type="veh_passenger" depart="374.41" departLane="best" from="1038136214" to="174306254#5"/>
    <trip id="veh198" type="veh_passenger" depart="376.31" departLane="best" from="573304465#0" to="250248463#1"/>
    <trip id="veh199" type="veh_passenger" depart="378.21" departLane="best" from="4577077#1" to="44347984#1"/>
    <trip id="veh200" type="veh_passenger" depart="380.11" departLane="best" from="49229585#0" to="4754396#9"/>
    <trip id="veh201" type="veh_passenger" depart="382.01" departLane="best" from="-181733207" to="1038136214"/>
    <trip id="veh202" type="veh_passenger" depart="383.91" departLane="best" from="-4577078#4" to="-10585470"/>
    <trip id="veh203" type="veh_passenger" depart="385.81" departLane="best" from="4868236#1" to="4909717#6"/>
    <trip id="veh204" type="veh_passenger" depart="387.71" departLane="best" from="-4577079#23" to="139332156"/>
    <trip id="veh205" type="veh_passenger" depart="389.61" departLane="best" from="-4909687#0" to="792597602#0"/>
    <trip id="veh207" type="veh_passenger" depart="393.41" departLane="best" from="10539044#0" to="573304465#0"/>
    <trip id="veh209" type="veh_passenger" depart="397.21" departLane="best" from="45897403#2" to="866587587#3"/>
    <trip id="veh210" type="veh_passenger" depart="399.11" departLane="best" from="-28338493#4" to="791849034#0"/>
    <trip id="veh211" type="veh_passenger" depart="401.02" departLane="best" from="754116436#1" to="39516474#6"/>
    <trip id="veh212" type="veh_passenger" depart="402.92" departLane="best" from="4754479#0" to="-19579792#0"/>
    <trip id="veh213" type="veh_passenger" depart="404.82" departLane="best" from="569765778" to="204241143#5"/>
    <trip id="veh214" type="veh_passenger" depart="406.72" departLane="best" from="767369896#2" to="-4868205"/>
    <trip id="veh215" type="veh_passenger" depart="408.62" departLane="best" from="178953745#1" to="10585197#2"/>
    <trip id="veh216" type="veh_passenger" depart="410.52" departLane="best" from="4909703#3" to="198711890#2"/>
    <trip id="veh218" type="veh_passenger" depart="414.32" departLane="best" from="-28242403" to="1070607481#1"/>
    <trip id="veh219" type="veh_passenger" depart="416.22" departLane="best" from="1070607475" to="1115955280"/>
    <trip id="veh220" type="veh_passenger" depart="418.12" departLane="best" from="204241141#4" to="4754448#4"/>
    <trip id="veh222" type="veh_passenger" depart="421.92" departLane="best" from="4754429#1" to="-204241141#4"/>
    <trip id="veh223" type="veh_passenger" depart="423.82" departLane="best" from="139327106" to="204241143#0"/>
    <trip id="veh224" type="veh_passenger" depart="425.72" departLane="best" from="569766862#1" to="548632557"/>
    <trip id="veh226" type="veh_passenger" depart="429.52" departLane="best" from="24801549#5" to="4754396#7"/>
    <trip id="veh227" type="veh_passenger" depart="431.42" departLane="best" from="573676801" to="4909703#0"/>
    <trip id="veh228" type="veh_passenger" depart="433.32" departLane="best" from="-120022740#1" to="10585473"/>
    <trip id="veh229" type="veh_passenger" depart="435.23" departLane="best" from="1117069539" to="4868238#3"/>
    <trip id="veh232" type="veh_passenger" depart="440.93" departLane="best" from="162520310#2" to="13127123#4"/>
    <trip id="veh233" type="veh_passenger" depart="442.83" departLane="best" from="139327105#0" to="-4868220"/>
    <trip id="veh234" type="veh_passenger" depart="444.73" departLane="best" from="174306254#3" to="-4754415"/>
    <trip id="veh235" type="veh_passenger" depart="446.63" departLane="best" departSpeed="max" from="39516752#0" to="13127123#0"/>
    <trip id="veh237" type="veh_passenger" depart="450.43" departLane="best" from="-13127123#0" to="44348588#0"/>
    <trip id="veh238" type="veh_passenger" depart="452.33" departLane="best" from="-4754444#5" to="16986734#0"/>
    <trip id="veh239" type="veh_passenger" depart="454.23" departLane="best" from="-179269283" to="1148448178"/>
    <trip id="veh240" type="veh_passenger" depart="456.13" departLane="best" from="-630680457#5" to="1115955284#0"/>
    <trip id="veh241" type="veh_passenger" depart="458.03" departLane="best" from="4909699" to="1148448178"/>
    <trip id="veh242" type="veh_passenger" depart="459.93" departLane="best" from="4868238#1" to="569766862#0"/>
    <trip id="veh243" type="veh_passenger" depart="461.83" departLane="best" from="10539044#4" to="316469893"/>
    <trip id="veh244" type="veh_passenger" depart="463.73" departLane="best" from="-1164319799#0" to="-204241141#2"/>
    <trip id="veh245" type="veh_passenger" depart="465.63" departLane="best" from="-4577073#9" to="493547206#0"/>
    <trip id="veh246" type="veh_passenger" depart="467.53" departLane="best" from="4577076#2" to="4868238#4"/>
    <trip id="veh247" type="veh_passenger" depart="469.44" departLane="best" from="198691699#3" to="-505809448"/>
    <trip id="veh248" type="veh_passenger" depart="471.34" departLane="best" from="-120022740#1" to="47654466#0"/>
    <trip id="veh249" type="veh_passenger" depart="473.24" departLane="best" from="-4754403" to="-45897672#0"/>
    <trip id="veh250" type="veh_passenger" depart="475.14" departLane="best" from="209337363#2" to="654399245"/>
    <trip id="veh252" type="veh_passenger" depart="478.94" departLane="best" from="4868236#0" to="389642098#0"/>
    <trip id="veh253" type="veh_passenger" depart="480.84" departLane="best" from="4868219#0" to="46129019#3"/>
    <trip id="veh254" type="veh_passenger" depart="482.74" departLane="best" from="5326792" to="-786213999"/>
    <trip id="veh255" type="veh_passenger" depart="484.64" departLane="best" from="-4577079#4" to="-13123046#1"/>
    <trip id="veh256" type="veh_passenger" depart="486.54" departLane="best" from="1115955281#1" to="46129039"/>
    <trip id="veh257" type="veh_passenger" depart="488.44" departLane="best" from="792597602#0" to="13123638#0"/>
    <trip id="veh258" type="veh_passenger" depart="490.34" departLane="best" from="4754445" to="264962616#3"/>
    <trip id="veh259" type="veh_passenger" depart="492.24" departLane="best" from="-4754359" to="44347984#0"/>
    <trip id="veh260" type="veh_passenger" depart="494.14" departLane="best" from="-4577079#12" to="-4909720#3"/>
    <trip id="veh261" type="veh_passenger" depart="496.04" departLane="best" from="573304465#0-AddedOnRampEdge" to="289004372#2"/>
    <trip id="veh262" type="veh_passenger" depart="497.94" departLane="best" from="46135048#0" to="827546845"/>
    <trip id="veh263" type="veh_passenger" depart="499.84" departLane="best" from="-4577073#9" to="1117069527"/>
    <trip id="veh264" type="veh_passenger" depart="501.74" departLane="best" from="198691699#2" to="1117069523"/>
    <trip id="veh265" type="veh_passenger" depart="503.64" departLane="best" from="573304465#0" to="548631391"/>
    <trip id="veh266" type="veh_passenger" depart="505.55" departLane="best" from="-4577079#21" to="792597607#0"/>
    <trip id="veh267" type="veh_passenger" depart="507.45" departLane="best" from="44348023#0" to="569765778"/>