<?xml version="1.0" encoding="UTF-8"?>

<!-- generated on 2023-05-01 10:33:19.678925 by osmWebWizard.py UNKNOWN
<configuration>
    <allow-fringe.min-length value="1000.0"/>
    <begin value="0"/>
    <end value="3600"/>
    <fringe-factor value="5"/>
    <fringe-start-attributes value="departSpeed=&quot;max&quot;"/>
    <insertion-density value="12.0"/>
    <lanes value="True"/>
    <min-distance.fringe value="10.0"/>
    <min-distance value="300.0"/>
    <net-file value="/opt/homebrew/Cellar/sumo/1.16.0/share/sumo/tools/2023-05-01-10-33-13/osm.net.xml.gz"/>
    <remove-loops value="True"/>
    <route-file value="/opt/homebrew/Cellar/sumo/1.16.0/share/sumo/tools/2023-05-01-10-33-13/osm.passenger.rou.xml"/>
    <trip-attributes value="departLane=&quot;best&quot;"/>
    <output-trip-file value="/opt/homebrew/Cellar/sumo/1.16.0/share/sumo/tools/2023-05-01-10-33-13/osm.passenger.trips.xml"/>
    <prefix value="veh"/>
    <validate value="True"/>
    <vehicle-class value="passenger"/>
</configuration>
-->

<!-- generated on 2023-05-01 10:33:19 by Eclipse SUMO duarouter Version 1.16.0
<configuration xmlns:xsi="http://www.w3.org/2001/XMLSchema-instance" xsi:noNamespaceSchemaLocation="http://sumo.dlr.de/xsd/duarouterConfiguration.xsd">

    <input>
        <net-file value="/opt/homebrew/Cellar/sumo/1.16.0/share/sumo/tools/2023-05-01-10-33-13/osm.net.xml.gz"/>
        <route-files value="/opt/homebrew/Cellar/sumo/1.16.0/share/sumo/tools/2023-05-01-10-33-13/osm.passenger.trips.xml"/>
    </input>

    <output>
        <output-file value="/opt/homebrew/Cellar/sumo/1.16.0/share/sumo/tools/2023-05-01-10-33-13/osm.passenger.trips.xml.tmp"/>
        <alternatives-output value="NUL"/>
        <write-trips value="true"/>
    </output>

    <processing>
        <remove-loops value="true"/>
    </processing>

    <time>
        <begin value="0"/>
        <end value="3600"/>
    </time>

    <report>
        <no-warnings value="true"/>
        <ignore-errors value="true"/>
        <no-step-log value="true"/>
    </report>

</configuration>
-->

<routes xmlns:xsi="http://www.w3.org/2001/XMLSchema-instance" xsi:noNamespaceSchemaLocation="http://sumo.dlr.de/xsd/routes_file.xsd">
    <vType id="veh_passenger" vClass="passenger"/>
    <trip id="veh0" type="veh_passenger" depart="0.00" departLane="best" from="-46129021" to="1137557033"/>
    <trip id="veh1" type="veh_passenger" depart="3.10" departLane="best" departSpeed="max" from="1115955286" to="10539447#0"/>
    <trip id="veh2" type="veh_passenger" depart="6.20" departLane="best" from="49229445" to="4754399#3"/>
    <trip id="veh3" type="veh_passenger" depart="9.31" departLane="best" from="784545154#1" to="-46129019#0"/>
    <trip id="veh4" type="veh_passenger" depart="12.41" departLane="best" from="167571364#1" to="13127123#1"/>
    <trip id="veh5" type="veh_passenger" depart="15.51" departLane="best" from="10539044#2" to="198711889"/>
    <trip id="veh6" type="veh_passenger" depart="18.61" departLane="best" from="-1164317568#0" to="-792597601"/>
    <trip id="veh7" type="veh_passenger" depart="21.71" departLane="best" from="786235567#1" to="24385636"/>
    <trip id="veh8" type="veh_passenger" depart="24.82" departLane="best" from="10539044#3" to="39516474#4"/>
    <trip id="veh9" type="veh_passenger" depart="27.92" departLane="best" from="573304465#0" to="-10585186"/>
    <trip id="veh10" type="veh_passenger" depart="31.02" departLane="best" from="573304463#1" to="-4754447#0"/>
    <trip id="veh11" type="veh_passenger" depart="34.12" departLane="best" from="1148448178" to="-493547207#0"/>
    <trip id="veh12" type="veh_passenger" depart="37.22" departLane="best" from="794258390#0" to="1148448173"/>
    <trip id="veh13" type="veh_passenger" depart="40.33" departLane="best" from="-46129059#0" to="-46134996#0"/>
    <trip id="veh14" type="veh_passenger" depart="43.43" departLane="best" from="73530943#6" to="44348023#1"/>
    <trip id="veh15" type="veh_passenger" depart="46.53" departLane="best" from="573304463#3" to="4868238#5"/>
    <trip id="veh16" type="veh_passenger" depart="49.63" departLane="best" from="237508423#0" to="794626555#1"/>
    <trip id="veh17" type="veh_passenger" depart="52.73" departLane="best" from="139327105#1" to="24801549#3"/>
    <trip id="veh18" type="veh_passenger" depart="55.84" departLane="best" from="767369895#1" to="289004372#1"/>
    <trip id="veh19" type="veh_passenger" depart="58.94" departLane="best" from="-4754518" to="-178953745#0"/>
    <trip id="veh20" type="veh_passenger" depart="62.04" departLane="best" from="-10585181#1" to="1115955285#2"/>
    <trip id="veh21" type="veh_passenger" depart="65.14" departLane="best" from="-4577079#3" to="-10585186"/>
    <trip id="veh24" type="veh_passenger" depart="74.45" departLane="best" from="1115955283#1" to="791825000#0"/>
    <trip id="veh25" type="veh_passenger" depart="77.55" departLane="best" from="-46134996#1" to="44348024#1"/>
    <trip id="veh26" type="veh_passenger" depart="80.65" departLane="best" from="-630680457#3" to="4868238#4"/>
    <trip id="veh27" type="veh_passenger" depart="83.75" departLane="best" from="548116377" to="13127125#0"/>
    <trip id="veh28" type="veh_passenger" depart="86.86" departLane="best" departSpeed="max" from="985461732" to="46129019#6"/>
    <trip id="veh29" type="veh_passenger" depart="89.96" departLane="best" from="25757262#4" to="4754429#1"/>
    <trip id="veh30" type="veh_passenger" depart="93.06" departLane="best" from="-725249379" to="548116379#1"/>
    <trip id="veh31" type="veh_passenger" depart="96.16" departLane="best" from="-10585181#2" to="13127123#5"/>
    <trip id="veh32" type="veh_passenger" depart="99.27" departLane="best" from="-1117069540#1" to="1089988281#0"/>
    <trip id="veh34" type="veh_passenger" depart="105.47" departLane="best" from="780202326" to="1117069534"/>
    <trip id="veh35" type="veh_passenger" depart="108.57" departLane="best" from="4707777#0" to="139327109#2"/>
    <trip id="veh36" type="veh_passenger" depart="111.67" departLane="best" from="786234664#1" to="16992996#1"/>
    <trip id="veh37" type="veh_passenger" depart="114.78" departLane="best" from="1115955283#0" to="1070607481"/>
    <trip id="veh38" type="veh_passenger" depart="117.88" departLane="best" from="288985250" to="1089988281#0"/>
    <trip id="veh39" type="veh_passenger" depart="120.98" departLane="best" from="39516474#5" to="784545155#0"/>
    <trip id="veh40" type="veh_passenger" depart="124.08" departLane="best" from="165828352#0" to="10539044#2"/>
    <trip id="veh41" type="veh_passenger" depart="127.18" departLane="best" from="-46129021" to="178953756"/>
    <trip id="veh42" type="veh_passenger" depart="130.29" departLane="best" from="-4754438#3" to="4577079#4"/>
    <trip id="veh43" type="veh_passenger" depart="133.39" departLane="best" from="250248456#4" to="139327098#0"/>
    <trip id="veh44" type="veh_passenger" depart="136.49" departLane="best" from="988996003" to="204241143#3"/>
    <trip id="veh45" type="veh_passenger" depart="139.59" departLane="best" from="794626555#2" to="754116436#0"/>
    <trip id="veh46" type="veh_passenger" depart="142.69" departLane="best" from="-10670468#2" to="4868215#1"/>
    <trip id="veh47" type="veh_passenger" depart="145.80" departLane="best" from="-4754434#1" to="237508423#0"/>
    <trip id="veh48" type="veh_passenger" depart="148.90" departLane="best" from="-4754444#0" to="165828352#4"/>
    <trip id="veh49" type="veh_passenger" depart="152.00" departLane="best" from="179269291#3" to="794258388"/>
    <trip id="veh50" type="veh_passenger" depart="155.10" departLane="best" from="780202326" to="1089988281#0"/>
    <trip id="veh51" type="veh_passenger" depart="158.20" departLane="best" departSpeed="max" from="203087928" to="654399242#3"/>
    <trip id="veh52" type="veh_passenger" depart="161.31" departLane="best" from="786234664#1" to="767369896#2"/>
    <trip id="veh53" type="veh_passenger" depart="164.41" departLane="best" from="1117069529" to="46129019#4"/>
    <trip id="veh54" type="veh_passenger" depart="167.51" departLane="best" from="-4577073#9" to="493547204"/>
    <trip id="veh55" type="veh_passenger" depart="170.61" departLane="best" from="52631615#4" to="237508423#1"/>
    <trip id="veh56" type="veh_passenger" depart="173.71" departLane="best" from="569765777" to="204241143#3"/>
    <trip id="veh57" type="veh_passenger" depart="176.82" departLane="best" from="-10539447#0" to="1117069539"/>
    <trip id="veh58" type="veh_passenger" depart="179.92" departLane="best" from="-1117069537#2" to="786245177#0"/>
    <trip id="veh59" type="veh_passenger" depart="183.02" departLane="best" from="780204160" to="-63906910#0"/>
    <trip id="veh60" type="veh_passenger" depart="186.12" departLane="best" from="1117069536" to="-181733211"/>
    <trip id="veh61" type="veh_passenger" depart="189.22" departLane="best" from="780204160" to="-792597605#1"/>
    <trip id="veh62" type="veh_passenger" depart="192.33" departLane="best" from="45897672#2" to="179269292#1"/>
    <trip id="veh63" type="veh_passenger" depart="195.43" departLane="best" from="-39516597#2" to="5094893#1"/>
    <trip id="veh65" type="veh_passenger" depart="201.63" departLane="best" from="202904794" to="24801549#0"/>
    <trip id="veh66" type="veh_passenger" depart="204.73" departLane="best" from="1115955283#0" to="767369896#2"/>
    <trip id="veh67" type="veh_passenger" depart="207.84" departLane="best" from="167571364#1" to="1038136214"/>
    <trip id="veh68" type="veh_passenger" depart="210.94" departLane="best" from="167571346" to="4868238#5"/>
    <trip id="veh69" type="veh_passenger" depart="214.04" departLane="best" from="-794250467" to="1117069529"/>
    <trip id="veh70" type="veh_passenger" depart="217.14" departLane="best" from="988996003" to="46134996#1"/>
    <trip id="veh71" type="veh_passenger" depart="220.24" departLane="best" from="172916442#0" to="203086244#4"/>
    <trip id="veh72" type="veh_passenger" depart="223.35" departLane="best" from="-4754448#6" to="1056152607"/>
    <trip id="veh73" type="veh_passenger" depart="226.45" departLane="best" from="-4577073#0" to="45897403#3"/>
    <trip id="veh74" type="veh_passenger" depart="229.55" departLane="best" from="-10585181#2" to="784545156#1"/>
    <trip id="veh75" type="veh_passenger" depart="232.65" departLane="best" from="754116436#1" to="-44341853"/>
    <trip id="veh76" type="veh_passenger" depart="235.75" departLane="best" from="10585502#1" to="4754396#9"/>
    <trip id="veh77" type="veh_passenger" depart="238.86" departLane="best" from="44348551#2" to="4868203#1"/>
    <trip id="veh78" type="veh_passenger" depart="241.96" departLane="best" from="791825000#1" to="288985252#1"/>
    <trip id="veh79" type="veh_passenger" depart="245.06" departLane="best" from="198691696#1" to="569765779"/>
    <trip id="veh80" type="veh_passenger" depart="248.16" departLane="best" from="573304463#3" to="-73530943#4"/>
    <trip id="veh81" type="veh_passenger" depart="251.26" departLane="best" from="-46134996#1" to="165828352#4"/>
    <trip id="veh82" type="veh_passenger" depart="254.37" departLane="best" from="16986525" to="172916437#1"/>
    <trip id="veh83" type="veh_passenger" depart="257.47" departLane="best" from="4868239#1" to="4754399#13"/>
    <trip id="veh85" type="veh_passenger" depart="263.67" departLane="best" from="165828352#1" to="1148448173"/>
    <trip id="veh86" type="veh_passenger" depart="266.78" departLane="best" from="767369895#1" to="1070607481"/>
    <trip id="veh87" type="veh_passenger" depart="269.88" departLane="best" from="73530943#5" to="167571364#0"/>
    <trip id="veh89" type="veh_passenger" depart="276.08" departLane="best" from="1089988280#2" to="467592829"/>
    <trip id="veh90" type="veh_passenger" depart="279.18" departLane="best" from="179269278" to="754116436#1"/>
    <trip id="veh91" type="veh_passenger" depart="282.29" departLane="best" from="45897403#2" to="-179269283"/>
    <trip id="veh92" type="veh_passenger" depart="285.39" departLane="best" from="988996007#1" to="654399242#5"/>
    <trip id="veh93" type="veh_passenger" depart="288.49" departLane="best" from="794626555#1" to="786245176"/>
    <trip id="veh94" type="veh_passenger" depart="291.59" departLane="best" from="73530943#8" to="-548116383"/>
    <trip id="veh95" type="veh_passenger" depart="294.69" departLane="best" from="203086244#4" to="1038136215"/>
    <trip id="veh96" type="veh_passenger" depart="297.80" departLane="best" from="165828352#0" to="-181733283"/>
    <trip id="veh97" type="veh_passenger" depart="300.90" departLane="best" from="139327106" to="985461730"/>
    <trip id="veh98" type="veh_passenger" depart="304.00" departLane="best" from="1115955283#0" to="569765779"/>
    <trip id="veh99" type="veh_passenger" depart="307.10" departLane="best" from="179269292#2" to="165828352#1"/>
    <trip id="veh100" type="veh_passenger" depart="310.20" departLane="best" from="794258390#0" to="988996003"/>
    <trip id="veh101" type="veh_passenger" depart="313.31" departLane="best" from="4577077#1" to="4868203#2"/>
    <trip id="veh102" type="veh_passenger" depart="316.41" departLane="best" from="493547207#0" to="1117069524#0"/>
    <trip id="veh103" type="veh_passenger" depart="319.51" departLane="best" from="794269737" to="289004372#2"/>
    <trip id="veh104" type="veh_passenger" depart="322.61" departLane="best" from="237508424" to="5045577#0"/>
    <trip id="veh105" type="veh_passenger" depart="325.71" departLane="best" from="-179384834#5" to="-36903821#3"/>
    <trip id="veh107" type="veh_passenger" depart="331.92" departLane="best" from="-5045577#2" to="794258390#0"/>
    <trip id="veh108" type="veh_passenger" depart="335.02" departLane="best" from="-4577079#3" to="711979119"/>
    <trip id="veh109" type="veh_passenger" depart="338.12" departLane="best" from="44348023#1" to="4754399#13"/>
    <trip id="veh110" type="veh_passenger" depart="341.22" departLane="best" from="10585474" to="4754448#4"/>
    <trip id="veh111" type="veh_passenger" depart="344.33" departLane="best" from="784545154#0" to="1070607481"/>
    <trip id="veh113" type="veh_passenger" depart="350.53" departLane="best" from="167571364#0" to="-36903821#2"/>
    <trip id="veh114" type="veh_passenger" depart="353.63" departLane="best" from="83687001" to="48485713"/>
    <trip id="veh115" type="veh_passenger" depart="356.73" departLane="best" from="10585502#2" to="139327109#2"/>
    <trip id="veh116" type="veh_passenger" depart="359.84" departLane="best" from="4754399#4" to="1117069524#2"/>
    <trip id="veh117" type="veh_passenger" depart="362.94" departLane="best" from="1117069540#0" to="-5046169#1"/>
    <trip id="veh118" type="veh_passenger" depart="366.04" departLane="best" from="-4577073#2" to="16992996#0"/>
    <trip id="veh119" type="veh_passenger" depart="369.14" departLane="best" from="-4577073#3" to="1038136215"/>
    <trip id="veh120" type="veh_passenger" depart="372.24" departLane="best" from="1115955283#0" to="-5046169#1"/>
    <trip id="veh121" type="veh_passenger" depart="375.35" departLane="best" from="13127125#1" to="5045577#2"/>
    <trip id="veh122" type="veh_passenger" depart="378.45" departLane="best" from="-654399242#5" to="4754479#0"/>
    <trip id="veh123" type="veh_passenger" depart="381.55" departLane="best" departSpeed="max" from="4577076#0" to="985461730"/>
    <trip id="veh124" type="veh_passenger" depart="384.65" departLane="best" from="467592829-AddedOffRampEdge" to="10585197#2"/>
    <trip id="veh125" type="veh_passenger" depart="387.75" departLane="best" from="573676800#1" to="1117069524#2"/>
    <trip id="veh126" type="veh_passenger" depart="390.86" departLane="best" from="4754396#4" to="791825000#1"/>
    <trip id="veh127" type="veh_passenger" depart="393.96" departLane="best" from="-4868215#0" to="4754444#5"/>
    <trip id="veh128" type="veh_passenger" depart="397.06" departLane="best" from="-4754437" to="24801549#5"/>
    <trip id="veh130" type="veh_passenger" depart="403.26" departLane="best" from="-4868215#0" to="-815582706"/>
    <trip id="veh131" type="veh_passenger" depart="406.37" departLane="best" from="46129019#0" to="1089988281#0"/>
    <trip id="veh132" type="veh_passenger" depart="409.47" departLane="best" from="73530943#4" to="-46129025#0"/>
    <trip id="veh134" type="veh_passenger" depart="415.67" departLane="best" from="46129019#5" to="-1089988280#3"/>
    <trip id="veh135" type="veh_passenger" depart="418.77" departLane="best" from="49896550" to="24801549#3"/>
    <trip id="veh136" type="veh_passenger" depart="421.88" departLane="best" from="16992996#1" to="-10585474"/>
    <trip id="veh137" type="veh_passenger" depart="424.98" departLane="best" from="4577075#1" to="780204161"/>
    <trip id="veh138" type="veh_passenger" depart="428.08" departLane="best" from="786213998#0" to="24488541#0"/>
    <trip id="veh139" type="veh_passenger" depart="431.18" departLane="best" from="-654399242#7" to="-36903821#0"/>
    <trip id="veh140" type="veh_passenger" depart="434.29" departLane="best" from="-491516483#2" to="-4754506"/>
    <trip id="veh141" type="veh_passenger" depart="437.39" departLane="best" from="1117069536" to="784545155#0"/>
    <trip id="veh142" type="veh_passenger" depart="440.49" departLane="best" from="784545155#1" to="1038136214"/>
    <trip id="veh143" type="veh_passenger" depart="443.59" departLane="best" from="1089988280#2" to="-4754404#0"/>
    <trip id="veh144" type="veh_passenger" depart="446.69" departLane="best" from="139327110#0" to="4577077#0"/>
    <trip id="veh145" type="veh_passenger" depart="449.80" departLane="best" from="493547207#0" to="786245177#0"/>
    <trip id="veh146" type="veh_passenger" depart="452.90" departLane="best" from="767369896#0" to="807418425#0"/>
    <trip id="veh147" type="veh_passenger" depart="456.00" departLane="best" from="-1137557033" to="4909721"/>
    <trip id="veh148" type="veh_passenger" depart="459.10" departLane="best" departSpeed="max" from="1148448176" to="786245178"/>
    <trip id="veh149" type="veh_passenger" depart="462.20" departLane="best" from="573304463#0" to="767369895#1"/>
    <trip id="veh150" type="veh_passenger" depart="465.31" departLane="best" from="573304465#0-AddedOnRampEdge" to="1089988281#0"/>
    <trip id="veh151" type="veh_passenger" depart="468.41" departLane="best" from="569766862#0-AddedOffRampEdge" to="4754438#0"/>
    <trip id="veh152" type="veh_passenger" depart="471.51" departLane="best" from="1117069528" to="754116435#1"/>
    <trip id="veh153" type="veh_passenger" depart="474.61" departLane="best" from="-10539447#0" to="573304465#1"/>
    <trip id="veh154" type="veh_passenger" depart="477.71" departLane="best" from="179384834#1" to="1117069527"/>
    <trip id="veh155" type="veh_passenger" depart="480.82" departLane="best" from="-11294993" to="73530943#8"/>
    <trip id="veh156" type="veh_passenger" depart="483.92" departLane="best" departSpeed="max" from="1148448176" to="767369895#1"/>
    <trip id="veh157" type="veh_passenger" depart="487.02" departLane="best" from="794269737" to="1115955285#0"/>
    <trip id="veh158" type="veh_passenger" depart="490.12" departLane="best" from="46129033" to="-139332150#0"/>
    <trip id="veh159" type="veh_passenger" depart="493.22" departLane="best" from="792153597" to="4754444#5"/>
    <trip id="veh160" type="veh_passenger" depart="496.33" departLane="best" from="794626555#2" to="654399242#3"/>
    <trip id="veh162" type="veh_passenger" depart="502.53" departLane="best" from="-4754438#1" to="165828352#4"/>
    <trip id="veh163" type="veh_passenger" depart="505.63" departLane="best" from="-4577073#1" to="203086244#1"/>
    <trip id="veh164" type="veh_passenger" depart="508.73" departLane="best" from="139327109#2" to="289004372#0-AddedOffRampEdge"/>
    <trip id="veh165" type="veh_passenger" depart="511.84" departLane="best" departSpeed="max" from="1089996375" to="24385636"/>
    <trip id="veh166" type="veh_passenger" depart="514.94" departLane="best" from="-10585181#0" to="786245176"/>
    <trip id="veh167" type="veh_passenger" depart="518.04" departLane="best" from="237508423#1" to="4868203#3"/>
    <trip id="veh168" type="veh_passenger" depart="521.14" departLane="best" from="-4577073#9" to="4754399#10"/>
    <trip id="veh169" type="veh_passenger" depart="524.24" departLane="best" from="13124183" to="-39516597#2"/>
    <trip id="veh170" type="veh_passenger" depart="527.35" departLane="best" from="4754396#5" to="-1117069541"/>
    <trip id="veh171" type="veh_passenger" depart="530.45" departLane="best" from="1117069539" to="-73530943#3"/>
    <trip id="veh172" type="veh_passenger" depart="533.55" departLane="best" from="4868215#3" to="1117069524#2"/>
    <trip id="veh173" type="veh_passenger" depart="536.65" departLane="best" from="1117069537#0" to="139332617"/>
    <trip id="veh174" type="veh_passenger" depart="539.75" departLane="best" from="165828352#1" to="1117069523"/>
    <trip id="veh175" type="veh_passenger" depart="542.86" departLane="best" from="-4754518" to="827546847"/>
    <trip id="veh176" type="veh_passenger" depart="545.96" departLane="best" from="792597601" to="4754399#4"/>
    <trip id="veh177" type="veh_passenger" depart="549.06" departLane="best" from="786213998#0" to="4577073#2"/>
    <trip id="veh178" type="veh_passenger" depart="552.16" departLane="best" from="1117069529" to="24488547#0"/>
    <trip id="veh179" type="veh_passenger" depart="555.26" departLane="best" from="-10539447#0" to="1115955285#2"/>
    <trip id="veh180" type="veh_passenger" depart="558.37" departLane="best" from="17133664#3" to="289004372#2"/>
    <trip id="veh181" type="veh_passenger" depart="561.47" departLane="best" from="4707777#0" to="172916436#0"/>
    <trip id="veh182" type="veh_passenger" depart="564.57" departLane="best" from="-178953745#1" to="1038136215"/>
    <trip id="veh183" type="veh_passenger" depart="567.67" departLane="best" from="198711889" to="784545155#1"/>
    <trip id="veh184" type="veh_passenger" depart="570.77" departLane="best" from="573304461#0" to="-630680457#0"/>
    <trip id="veh185" type="veh_passenger" depart="573.88" departLane="best" from="45897672#2" to="1148448173"/>
    <trip id="veh186" type="veh_passenger" depart="576.98" departLane="best" from="573676800#1" to="-5046169#0"/>
    <trip id="veh188" type="veh_passenger" depart="583.18" departLane="best" from="792597605#0" to="11294994"/>
    <trip id="veh190" type="veh_passenger" depart="589.39" departLane="best" from="754116434#0" to="-4577073#2"/>
    <trip id="veh191" type="veh_passenger" depart="592.49" departLane="best" from="167571345#2" to="45897403#1"/>
    <trip id="veh192" type="veh_passenger" depart="595.59" departLane="best" from="-786213999" to="4754444#5"/>
    <trip id="veh193" type="veh_passenger" depart="598.69" departLane="best" departSpeed="max" from="203087928" to="1070607481"/>
    <trip id="veh194" type="veh_passenger" depart="601.80" departLane="best" from="5094891#4" to="5322853#1"/>
    <trip id="veh195" type="veh_passenger" depart="604.90" departLane="best" from="-4754435" to="165828352#3"/>
    <trip id="veh196" type="veh_passenger" depart="608.00" departLane="best" from="-654399242#0" to="794258389#0"/>
    <trip id="veh197" type="veh_passenger" depart="611.10" departLane="best" from="204241143#3" to="-179269282"/>
    <trip id="veh198" type="veh_passenger" depart="614.20" departLane="best" from="1089988280#2" to="-73530943#3"/>
    <trip id="veh199" type="veh_passenger" depart="617.31" departLane="best" from="179269292#4" to="573304461#2"/>
    <trip id="veh200" type="veh_passenger" depart="620.41" departLane="best" from="4754399#1" to="985461730"/>
    <trip id="veh202" type="veh_passenger" depart="626.61" departLane="best" from="784545154#0" to="44348588#0"/>
    <trip id="veh203" type="veh_passenger" depart="629.71" departLane="best" from="4868215#3" to="198711889"/>
    <trip id="veh204" type="veh_passenger" depart="632.82" departLane="best" from="-654399242#1" to="24488547#0"/>
    <trip id="veh205" type="veh_passenger" depart="635.92" departLane="best" from="786245177#0" to="-1089988280#1"/>
    <trip id="veh206" type="veh_passenger" depart="639.02" departLane="best" from="1089988280#0" to="46129019#2"/>
    <trip id="veh207" type="veh_passenger" depart="642.12" departLane="best" from="5322852" to="203086244#6"/>
    <trip id="veh209" type="veh_passenger" depart="648.33" departLane="best" from="-4577078#3" to="1115955285#2"/>
    <trip id="veh211" type="veh_passenger" depart="654.53" departLane="best" from="237508424" to="4868215#6"/>
    <trip id="veh212" type="veh_passenger" depart="657.63" departLane="best" from="-10585181#6" to="4754444#1"/>
    <trip id="veh213" type="veh_passenger" depart="660.73" departLane="best" departSpeed="max" from="4754591#0" to="250248463#1"/>
    <trip id="veh214" type="veh_passenger" depart="663.84" departLane="best" from="165828382#0" to="237508424"/>
    <trip id="veh215" type="veh_passenger" depart="666.94" departLane="best" from="39516474#4" to="4754444#3"/>
    <trip id="veh216" type="veh_passenger" depart="670.04" departLane="best" from="754116435#1" to="52631615#5"/>
    <trip id="veh217" type="veh_passenger" depart="673.14" departLane="best" from="139327106" to="-10585181#6"/>
    <trip id="veh218" type="veh_passenger" depart="676.24" departLane="best" from="1148448182" to="-5094887#1"/>
    <trip id="veh219" type="veh_passenger" depart="679.35" departLane="best" from="754116434#1" to="794250467"/>
    <trip id="veh220" type="veh_passenger" depart="682.45" departLane="best" from="167571364#0" to="5045577#0"/>
    <trip id="veh222" type="veh_passenger" depart="688.65" departLane="best" from="172916437#2" to="13127123#0"/>
    <trip id="veh224" type="veh_passenger" depart="694.86" departLane="best" from="-4577079#4" to="-1164317568#0"/>
    <trip id="veh225" type="veh_passenger" depart="697.96" departLane="best" from="139332157" to="288985250"/>
    <trip id="veh226" type="veh_passenger" depart="701.06" departLane="best" from="-1164317568#0" to="46129025#1"/>
    <trip id="veh227" type="veh_passenger" depart="704.16" departLane="best" from="-4868215#2" to="17133664#3"/>
    <trip id="veh228" type="veh_passenger" depart="707.26" departLane="best" from="179269282" to="13127123#5"/>
    <trip id="veh229" type="veh_passenger" depart="710.37" departLane="best" from="1038136214" to="1117069540#0"/>
    <trip id="veh230" type="veh_passenger" depart="713.47" departLane="best" from="52631615#2" to="13127123#5"/>
    <trip id="veh231" type="veh_passenger" depart="716.57" departLane="best" from="5094892#0" to="-63906910#1"/>
    <trip id="veh232" type="veh_passenger" depart="719.67" departLane="best" departSpeed="max" from="1089996375" to="-45897352#1"/>
    <trip id="veh233" type="veh_passenger" depart="722.77" departLane="best" from="991680920" to="1148448179"/>
    <trip id="veh234" type="veh_passenger" depart="725.88" departLane="best" from="786235567#1" to="569765777"/>
    <trip id="veh235" type="veh_passenger" depart="728.98" departLane="best" from="467592829-AddedOffRampEdge" to="5094891#1"/>
    <trip id="veh237" type="veh_passenger" depart="735.18" departLane="best" from="4754488" to="4754399#0"/>
    <trip id="veh238" type="veh_passenger" depart="738.28" departLane="best" from="288985252#0" to="10539044#1"/>
    <trip id="veh239" type="veh_passenger" depart="741.39" departLane="best" from="4754479#3" to="52631708#0"/>
    <trip id="veh240" type="veh_passenger" depart="744.49" departLane="best" from="-630680455#0" to="44348024#0"/>
    <trip id="veh241" type="veh_passenger" depart="747.59" departLane="best" from="5094891#5" to="-4754444#4"/>
    <trip id="veh242" type="veh_passenger" depart="750.69" departLane="best" from="573676801" to="794258390#2"/>
    <trip id="veh243" type="veh_passenger" depart="753.79" departLane="best" from="-4754438#1" to="114913922"/>
    <trip id="veh244" type="veh_passenger" depart="756.90" departLane="best" from="1117069538#1" to="4754399#4"/>
    <trip id="veh245" type="veh_passenger" depart="760.00" departLane="best" from="794258390#0" to="139327109#2"/>
    <trip id="veh246" type="veh_passenger" depart="763.10" departLane="best" from="-4868203#0" to="-4577078#0"/>
    <trip id="veh247" type="veh_passenger" depart="766.20" departLane="best" from="4754444#4" to="4577079#3"/>
    <trip id="veh248" type="veh_passenger" depart="769.31" departLane="best" from="-4754403" to="5322853#5"/>
    <trip id="veh249" type="veh_passenger" depart="772.41" departLane="best" from="754116434#0" to="44347939"/>
    <trip id="veh250" type="veh_passenger" depart="775.51" departLane="best" from="-4754448#6" to="93686025#2"/>
    <trip id="veh251" type="veh_passenger" depart="778.61" departLane="best" from="569765779" to="1148448177"/>
    <trip id="veh252" type="veh_passenger" depart="781.71" departLane="best" from="17133664#0" to="13123638#4"/>
    <trip id="veh253" type="veh_passenger" depart="784.82" departLane="best" departSpeed="max" from="204241143#0" to="1148448173"/>
    <trip id="veh254" type="veh_passenger" depart="787.92" departLane="best" from="73530943#9" to="573676801"/>
    <trip id="veh255" type="veh_passenger" depart="791.02" departLane="best" from="-4754434#1" to="794258390#0"/>
    <trip id="veh256" type="veh_passenger" depart="794.12" departLane="best" from="-46129019#2" to="630680457#4"/>
    <trip id="veh257" type="veh_passenger" depart="797.22" departLane="best" departSpeed="max" from="4754591#0" to="165828352#4"/>
    <trip id="veh258" type="veh_passenger" depart="800.33" departLane="best" from="-491516483#3" to="794258390#2"/>
    <trip id="veh260" type="veh_passenger" depart="806.53" departLane="best" from="237508423#1" to="179269291#2"/>
    <trip id="veh261" type="veh_passenger" depart="809.63" departLane="best" from="172916437#1" to="4868239#1"/>
    <trip id="veh263" type="veh_passenger" depart="815.84" departLane="best" from="-654399242#1" to="46129019#0"/>